{"whois":"% This is the RIPE Database query service.\n% The objects are in RPSL format.\n%\n% The RIPE Database is subject to Terms and Conditions.\n% See http:\/\/www.ripe.net\/db\/support\/db-terms-conditions.pdf\n\n% Note: this output has been filtered.\n%       To receive output for a database update, use the \"-B\" flag.\n\n% Information related to 'AS12557 - AS13223'\n\nas-block:       AS12557 - AS13223\ndescr:          RIPE NCC ASN block\nremarks:        These AS Numbers are assigned to network operators in the RIPE NCC service region.\nmnt-by:         RIPE-NCC-HM-MNT\nsource:         RIPE # Filtered\n\n% Information related to 'AS12644'\n\n% No abuse contact registered for AS12644\n\naut-num:        AS12644\nas-name:        TELEMACH\ndescr:          Telemach Autonomous System\ndescr:          Ljubljana, Slovenia\ndescr:          http:\/\/www.telemach.si\nremarks:\nremarks:        -------------------------------------------------------\nremarks:        Upstreams\nremarks:        -------------------------------------------------------\nremarks:\nimport:         from AS8591 action pref=50; accept ANY\nexport:         to AS8591 announce AS-TELEMACH\nimport:         from AS3212 action pref=50; accept ANY\nexport:         to AS3212 announce AS-TELEMACH\nremarks:\nremarks:        -------------------------------------------------------\nremarks:        Customers\nremarks:        -------------------------------------------------------\nremarks:\nremarks:        AS43128 --- Domenca\nimport:         from AS43128 213.143.80.138   accept   AS43128\nexport:         to   AS43128 213.143.80.138   announce AS-TELEMACH {0.0.0.0\/0}\nremarks:        AS56635 --- Xenya\nimport:         from AS56635 84.20.224.202    accept AS56635\nexport:         to   AS56635 84.20.224.202    announce AS-TELEMACH {0.0.0.0\/0}\nadmin-c:        TRT2-RIPE\ntech-c:         TRT2-RIPE\nremarks:        For information on \"status:\" attribute read https:\/\/www.ripe.net\/data-tools\/db\/faq\/faq-status-values-legacy-resources\nstatus:         ASSIGNED\nmnt-by:         RIPE-NCC-END-MNT\nmnt-by:         TELEMACH-MNT\nsource:         RIPE # Filtered\n\nrole:           Telemach RIPE Team\naddress:        Telemach, d.o.o.\naddress:        Cesta Ljubljanske brigade 21\naddress:        1000 Ljubljana\naddress:        Slovenia\nphone:          +386 1 51 88 630\nfax-no:         +386 1 51 88 601\nremarks:        trouble 22\/8 phone number: +386 1 51 88 600 or 51 88 630\nremarks:        **********************************************\nremarks:        * ABUSE CONTACT: abuse AT telemach.net          *\nremarks:        * IN CASE OF HACK ATTACKS, ILLEGAL ACTIVITY, *\nremarks:        * OTHER VIOLATIONS, SCANS,PROBES,ETC.        *\nremarks:        **********************************************\nremarks:\nremarks:        **********************************************\nremarks:        * SPAM CONTACT: spam AT telemach.net            *\nremarks:        * IN CASE OF SPAM                              *\nremarks:        **********************************************\nadmin-c:        MS4822-RIPE\ntech-c:         DJ2160-RIPE\ntech-c:         GN1562-RIPE\nnic-hdl:        TRT2-RIPE\nmnt-by:         TELEMACH-MNT\nsource:         RIPE # Filtered\n\n% This query was served by the RIPE Database Query Service version 1.76.1 (DB-4)\n\n\n"}