{"whois":"% This is the RIPE Database query service.\n% The objects are in RPSL format.\n%\n% The RIPE Database is subject to Terms and Conditions.\n% See http:\/\/www.ripe.net\/db\/support\/db-terms-conditions.pdf\n\n% Note: this output has been filtered.\n%       To receive output for a database update, use the \"-B\" flag.\n\n% Information related to 'AS41984 - AS43007'\n\nas-block:       AS41984 - AS43007\ndescr:          RIPE NCC ASN block\nremarks:        These AS Numbers are assigned to network operators in the RIPE NCC service region.\nmnt-by:         RIPE-NCC-HM-MNT\nsource:         RIPE # Filtered\n\n% Information related to 'AS42560'\n\n% No abuse contact registered for AS42560\n\naut-num:        AS42560\nas-name:        BA-TELEMACH-AS\ndescr:          Telemach d.o.o. Sarajevo\norg:            ORG-TB28-RIPE\nremarks:\nremarks:        # UPSTREAM IPv4\nremarks:\nexport:         to AS31042 announce AS-TELEMACH-BH\nimport:         from AS31042 action pref=100; accept ANY\nexport:         to AS3212 announce AS-TELEMACH-BH\nimport:         from AS3212 action pref=100; accept ANY\nremarks:\nremarks:        # UPSTREAM IPv6\nremarks:\nmp-import:      afi ipv6.unicast from AS31042 accept ANY\nmp-export:      afi ipv6.unicast to AS31042 announce AS-TELEMACH-BH\nmp-import:      afi ipv6.unicast from AS3212 accept ANY\nmp-export:      afi ipv6.unicast to AS3212 announce AS-TELEMACH-BH\nremarks:\nremarks:        # CUSTOMERS IPv4\nremarks:\nexport:         to AS43604 announce ANY\nimport:         from AS43604 accept AS43604\nexport:         to AS42450 announce ANY\nimport:         from AS42450 accept AS42450\nexport:         to AS51386 announce ANY\nimport:         from AS51386 accept AS51386\nexport:         to AS43179 announce ANY\nimport:         from AS43179 accept AS43179\nremarks:\nremarks:        # PEERING IPv4\nremarks:\nexport:         to AS21196 announce AS-TELEMACH-BH\nimport:         from AS21196 accept AS21196\nadmin-c:        TMCH-RIPE\ntech-c:         TMCH-RIPE\nstatus:         ASSIGNED\nmnt-by:         RIPE-NCC-END-MNT\nmnt-by:         MNT-TELEMACH\nmnt-routes:     MNT-TELEMACH\nmnt-routes:     LK-MNT\nremarks:        +------------------------------------+\nremarks:        | All abuse reports MUST be sent to: |\nremarks:        | |\nremarks:        | abuse@telemach.ba |\nremarks:        | |\nremarks:        | and NOT to any other address |\nremarks:        +------------------------------------+\nsource:         RIPE # Filtered\n\norganisation:   ORG-TB28-RIPE\norg-name:       Telemach BH\ndescr:          Telemach BH\ndescr:          Cable Communication Systems\ndescr:          (x) member of Adria Cable Group\norg-type:       OTHER\nabuse-mailbox:  abuse@telemach.ba\nadmin-c:        TMCH-RIPE\naddress:        Dzemala Bijedica 216\naddress:        71000 Sarajevo\nmnt-ref:        MNT-TELEMACH\nmnt-by:         MNT-TELEMACH\nsource:         RIPE # Filtered\n\nrole:           TELEMACH BH - IP OPERATIONS DEPARTMENT\naddress:        Dzemala Bijedica 216\naddress:        71000 Sarajevo\nmnt-by:         MNT-TELEMACH\nabuse-mailbox:  abuse@telemach.ba\nadmin-c:        DS7777-RIPE\ntech-c:         DS7777-RIPE\ntech-c:         SS19136-RIPE\ntech-c:         JK7384-RIPE\nnic-hdl:        TMCH-RIPE\nsource:         RIPE # Filtered\n\n% This query was served by the RIPE Database Query Service version 1.76.1 (DB-4)\n\n\n"}