{"whois":"% This is the RIPE Database query service.\n% The objects are in RPSL format.\n%\n% The RIPE Database is subject to Terms and Conditions.\n% See http:\/\/www.ripe.net\/db\/support\/db-terms-conditions.pdf\n\n% Note: this output has been filtered.\n%       To receive output for a database update, use the \"-B\" flag.\n\n% Information related to 'AS31000 - AS31064'\n\nas-block:       AS31000 - AS31064\ndescr:          RIPE NCC ASN block\nremarks:        These AS Numbers are assigned to network operators in the RIPE NCC service region.\nmnt-by:         RIPE-NCC-HM-MNT\nsource:         RIPE # Filtered\n\n% Information related to 'AS31042'\n\n% Abuse contact for 'AS31042' is 'abuse@sbb.rs'\n\naut-num:        AS31042\nas-name:        SERBIA-BROADBAND-AS\ndescr:          Serbia BroadBand-Srpske Kablovske mreze d.o.o.\norg:            ORG-SKmS1-RIPE\nadmin-c:        DS7777-RIPE\nadmin-c:        DS2087-RIPE\ntech-c:         VS1986-RIPE\ntech-c:         NK738-RIPE\nremarks:        *******************\nremarks:        ** UPSTREAM IPv4 **\nremarks:        *******************\nimport:         from AS1299 accept ANY\nexport:         to AS1299 announce AS-SBB\nimport:         from AS3257 accept ANY\nexport:         to AS3257 announce AS-SBB\nimport:         from AS3356 accept ANY\nexport:         to AS3356 announce AS-SBB\nimport:         from AS8928 accept ANY\nexport:         to AS8928 announce AS-SBB\nremarks:        *******************\nremarks:        ** UPSTREAM IPv6 **\nremarks:        *******************\nmp-import:      afi ipv6.unicast from AS1299 accept ANY\nmp-export:      afi ipv6.unicast to AS1299 announce AS-SBB-V6\nmp-import:      afi ipv6.unicast from AS3356 accept ANY\nmp-export:      afi ipv6.unicast to AS3356 announce AS-SBB-V6\nmp-import:      afi ipv6.unicast from AS3257 accept ANY\nmp-export:      afi ipv6.unicast to AS3257 announce AS-SBB-V6\nmp-import:      afi ipv6.unicast from AS8928 accept ANY\nmp-export:      afi ipv6.unicast to AS8928 announce AS-SBB-V6\nremarks:        ********************\nremarks:        ** CUSTOMERS IPv4 **\nremarks:        ********************\nimport:         from AS21215 accept AS-ABSOLUTOK\nexport:         to AS21215 announce ANY\nimport:         from AS3212 accept AS-TRIERA\nexport:         to AS3212 announce ANY\nimport:         from AS42560 accept AS-TELEMACH-BH\nexport:         to AS42560 announce ANY\nimport:         from AS48414 accept AS-KDS\nexport:         to AS48414 announce ANY\nimport:         from AS41227 accept AS-ARTCOMMUNICATION\nexport:         to AS41227 announce ANY\nimport:         from AS197021 accept AS-MADNET-RS\nexport:         to AS197021 announce ANY\nimport:         from AS15832 accept AS15832\nexport:         to AS15832 announce ANY\nimport:         from AS15926 accept AS15926\nexport:         to AS15926 announce ANY\nimport:         from AS43335 accept AS43335\nexport:         to AS43335 announce ANY\nimport:         from AS25464 accept AS25464\nexport:         to AS25464 announce ANY\nimport:         from AS34258 accept AS34258\nexport:         to AS34258 announce ANY\nimport:         from AS41507 accept AS41507\nexport:         to AS41507 announce ANY\nimport:         from AS8270 accept AS8270\nexport:         to AS8270 announce ANY\nimport:         from AS42860 accept AS42860\nexport:         to AS42860 announce ANY\nimport:         from AS8295 accept AS8295\nexport:         to AS8295 announce ANY\nimport:         from AS12823 accept AS12823\nexport:         to AS12823 announce ANY\nimport:         from AS29604 accept AS29604\nexport:         to AS29604 announce ANY\nimport:         from AS44958 accept AS44958\nexport:         to AS44958 announce ANY\nimport:         from AS43281 accept AS43281\nexport:         to AS43281 announce ANY\nimport:         from AS44301 accept AS44301\nexport:         to AS44301 announce ANY\nimport:         from AS47222 accept AS47222\nexport:         to AS47222 announce ANY\nimport:         from AS48414 accept AS48414\nexport:         to AS48414 announce ANY\nimport:         from AS35440 accept AS35440\nexport:         to AS35440 announce ANY\nimport:         from AS49167 accept AS49167\nexport:         to AS49167 announce ANY\nimport:         from AS50872 accept AS50872\nexport:         to AS50872 announce ANY\nimport:         from AS56816 accept AS56816\nexport:         to AS56816 announce ANY\nimport:         from AS196886 accept AS196886\nexport:         to AS196886 announce ANY\nimport:         from AS196908 accept AS196908\nexport:         to AS196908 announce ANY\nimport:         from AS198237 accept AS198237\nexport:         to AS198237 announce ANY\nimport:         from AS198273 accept AS198273\nexport:         to AS198273 announce ANY\nimport:         from AS44143 accept AS44143\nexport:         to AS44143 announce ANY\nimport:         from AS47267 accept AS47267\nexport:         to AS47267 announce ANY\nimport:         from AS48653 accept AS48653\nexport:         to AS48653 announce ANY\nimport:         from AS51002 accept AS51002\nexport:         to AS51002 announce ANY\nimport:         from AS51859 accept AS51859\nexport:         to AS51859 announce ANY\nimport:         from AS51908 accept AS51908\nexport:         to AS51908 announce ANY\nimport:         from AS52068 accept AS52068\nexport:         to AS52068 announce ANY\nimport:         from AS52105 accept AS52105\nexport:         to AS52105 announce ANY\nimport:         from AS52187 accept AS52187\nexport:         to AS52187 announce ANY\nimport:         from AS56576 accept AS56576\nexport:         to AS56576 announce ANY\nimport:         from AS57550 accept AS57550\nexport:         to AS57550 announce ANY\nimport:         from AS59737 accept AS59737\nexport:         to AS59737 announce ANY\nimport:         from AS198360 accept AS198360\nexport:         to AS198360 announce ANY\nimport:         from AS198370 accept AS198370\nexport:         to AS198370 announce ANY\nimport:         from AS198371 accept AS198371\nexport:         to AS198371 announce ANY\nimport:         from AS198603 accept AS198603\nexport:         to AS198603 announce ANY\nimport:         from AS198649 accept AS198649\nexport:         to AS198649 announce ANY\nimport:         from AS198894 accept AS198894\nexport:         to AS198894 announce ANY\nremarks:        ********************\nremarks:        ** CUSTOMERS IPv6 **\nremarks:        ********************\nmp-import:      afi ipv6.unicast from AS42560 accept AS-TELEMACH-BH\nmp-export:      afi ipv6.unicast to AS42560 announce ANY\nmp-import:      afi ipv6.unicast from AS49167 accept AS49167\nmp-export:      afi ipv6.unicast to AS49167 announce ANY\nremarks:        ***************************\nremarks:        ** PRIVATE PEERINGS IPv4 **\nremarks:        ***************************\nimport:         from AS6695 accept AS-DECIX\nexport:         to AS6695 announce AS-SBB\nimport:         from AS6777 accept AS-AMS-IX-RS\nexport:         to AS6777 action community .= { 6777:6777, 6777:16265 }; announce AS-SBB\nimport:         from AS8714 accept AS-LINX\nexport:         to AS8714 announce AS-SBB\nimport:         from AS1121 accept AS-VIX-RS\nexport:         to AS1121 announce AS-SBB\nimport:         from AS13004 accept AS-SOX\nexport:         to AS13004 announce AS-SBB\nimport:         from AS8771 accept AS-YUNET\nexport:         to AS8771 announce AS-SBB\nimport:         from AS15982 accept AS-VERATNET\nexport:         to AS15982 announce AS-SBB\nimport:         from AS29433 accept AS-ORIONTELEKOM\nexport:         to AS29433 announce AS-SBB\nimport:         from AS6700 accept AS-BEOTELNET\nexport:         to AS6700 announce AS-SBB\nimport:         from AS15958 accept AS-TELENORDOO\nexport:         to AS15958 announce AS-SBB\nimport:         from AS9081 accept AS9081\nexport:         to AS9081 announce AS-SBB\nimport:         from AS9125 accept AS9125\nexport:         to AS9125 announce AS-SBB\nimport:         from AS12558 accept AS-YUBC\nexport:         to AS12558 announce AS-SBB\nimport:         from AS25431 accept AS25431\nexport:         to AS25431 announce AS-SBB\nimport:         from AS43608 accept AS43608\nexport:         to AS43608 announce AS-SBB\nimport:         from AS13092 accept AS13092\nexport:         to AS13092 announce AS-SBB\nimport:         from AS15994 accept AS-DCM-ASSET\nexport:         to AS15994 announce AS-SBB\nimport:         from AS41937 accept AS-VEKTOR\nexport:         to AS41937 announce AS-SBB\nremarks:        ***************************\nremarks:        ** PRIVATE PEERINGS IPv6 **\nremarks:        ***************************\nmp-import:      afi ipv6.unicast from AS6695 accept AS-DECIX-V6\nmp-export:      afi ipv6.unicast to AS6695 announce AS-SBB-V6\nmp-import:      afi ipv6.unicast from AS6777 accept AS-AMS-IX-RS\nmp-export:      afi ipv6.unicast to AS6777 announce AS-SBB-V6\nmp-import:      afi ipv6.unicast from AS8714 accept AS-LINX\nmp-export:      afi ipv6.unicast to AS8714 announce AS-SBB-V6\nmp-import:      afi ipv6.unicast from AS1121 accept AS-VIX-RS\nmp-export:      afi ipv6.unicast to AS1121 announce AS-SBB-V6\nremarks:        ********************************\nremarks:        ** PUBLIC PEERINGS IPv4 **\nremarks:        ** AMS-IX, DE-CIX ,VIX & LINX **\nremarks:        ********************************\nexport:         to AS42 announce AS-SBB\nimport:         from AS42 accept AS-PCH\nexport:         to AS553 announce AS-SBB\nimport:         from AS553 accept AS-BELWUE\nexport:         to AS6083 announce AS-SBB\nimport:         from AS6083 accept AS-POSIX\nexport:         to AS1200 announce AS-SBB\nimport:         from AS1200 accept AS1200\nexport:         to AS1764 announce AS-SBB\nimport:         from AS1764 accept AS-NEXTLAYER\nexport:         to AS2119 announce AS-SBB\nimport:         from AS2119 accept AS-TELENOR\nexport:         to AS2603 announce AS-SBB\nimport:         from AS2603 accept AS-NORDUNET\nexport:         to AS2852 announce AS-SBB\nimport:         from AS2852 accept AS-CESNET\nexport:         to AS3267 announce AS-SBB\nimport:         from AS3267 accept AS-RUNNET\nexport:         to AS3856 announce AS-SBB\nimport:         from AS3856 accept AS-PCH\nexport:         to AS4739 announce AS-SBB\nimport:         from AS4739 accept AS4739\nexport:         to AS5089 announce AS-SBB\nimport:         from AS5089 accept AS-NTLI\nexport:         to AS5430 announce AS-SBB\nimport:         from AS5430 accept AS-FREENETDE\nexport:         to AS5580 announce AS-SBB\nimport:         from AS5580 accept AS-ATRATO\nexport:         to AS5607 announce AS-SBB\nimport:         from AS5607 accept AS-BSKYB-BROADBAND\nexport:         to AS6327 announce AS-SBB\nimport:         from AS6327 accept AS-BIGPIPE\nexport:         to AS6661 announce AS-SBB\nimport:         from AS6661 accept AS-PTLU\nexport:         to AS6663 announce AS-SBB\nimport:         from AS6663 accept AS-PANTEL\nexport:         to AS6667 announce AS-SBB\nimport:         from AS6667 accept AS-EUNETIP\nexport:         to AS6724 announce AS-SBB\nimport:         from AS6724 accept AS-STRATORZ\nexport:         to AS6730 announce AS-SBB\nimport:         from AS6730 accept AS-GLOBAL\nexport:         to AS6805 announce AS-SBB\nimport:         from AS6805 accept AS-TDDE\nexport:         to AS6939 announce AS-SBB\nimport:         from AS6939 accept AS-HURRICANE\nexport:         to AS8075 announce AS-SBB\nimport:         from AS8075 accept AS-MICROSOFT\nexport:         to AS8245 announce AS-SBB\nimport:         from AS8245 accept AS-VB\nexport:         to AS8262 announce AS-SBB\nimport:         from AS8262 accept AS-EVOLINK\nexport:         to AS8319 announce AS-SBB\nimport:         from AS8319 accept AS-IXNETHINKS\nexport:         to AS8365 announce AS-SBB\nimport:         from AS8365 accept AS-MANDA\nexport:         to AS8387 announce AS-SBB\nimport:         from AS8387 accept AS-T-SYSTEMS-AT\nexport:         to AS8412 announce AS-SBB\nimport:         from AS8412 accept AS-TMA2VIX\nexport:         to AS8422 announce AS-SBB\nimport:         from AS8422 accept AS-NETCOLOGNE\nexport:         to AS8445 announce AS-SBB\nimport:         from AS8445 accept AS-SALZBURG-AG\nexport:         to AS8447 announce AS-SBB\nimport:         from AS8447 accept AS-PTA\nexport:         to AS8469 announce AS-SBB\nimport:         from AS8469 accept AS-PIRONETNDH\nexport:         to AS8492 announce AS-SBB\nimport:         from AS8492 accept AS-OBIT\nexport:         to AS8551 announce AS-SBB\nimport:         from AS8551 accept AS-BEZEQINT\nexport:         to AS8560 announce AS-SBB\nimport:         from AS8560 accept AS-1AND1\nexport:         to AS8591 announce AS-SBB\nimport:         from AS8591 accept AS-AMIS\nexport:         to AS8657 announce AS-SBB\nimport:         from AS8657 accept AS-CPRM\nexport:         to AS8816 announce AS-SBB\nimport:         from AS8816 accept AS-METROLINK-IT\nexport:         to AS9002 announce AS-SBB\nimport:         from AS9002 accept AS-RETN\nexport:         to AS9009 announce AS-SBB\nimport:         from AS9009 accept AS-GBXS\nexport:         to AS9044 announce AS-SBB\nimport:         from AS9044 accept AS-SOLNET\nexport:         to AS9063 announce AS-SBB\nimport:         from AS9063 accept AS-SAARGATE\nexport:         to AS9066 announce AS-SBB\nimport:         from AS9066 accept AS-BCC\nexport:         to AS9145 announce AS-SBB\nimport:         from AS9145 accept AS-EWETEL\nexport:         to AS10310 announce AS-SBB\nimport:         from AS10310 accept AS-YAHOO\nexport:         to AS12041 announce AS-SBB\nimport:         from AS12041 accept AS12041\nexport:         to AS12350 announce AS-SBB\nimport:         from AS12350 accept AS-VTX\nexport:         to AS12715 announce AS-SBB\nimport:         from AS12715 accept AS-JAZZTRANS\nexport:         to AS12611 announce AS-SBB\nimport:         from AS12611 accept AS-RKOM\nexport:         to AS12678 announce AS-SBB\nimport:         from AS12678 accept AS-BADOO\nexport:         to AS12731 announce AS-SBB\nimport:         from AS12731 accept AS-IPHH\nexport:         to AS12759 announce AS-SBB\nimport:         from AS12759 accept AS-SOCO\nexport:         to AS12859 announce AS-SBB\nimport:         from AS12859 accept AS-BIT\nexport:         to AS13030 announce AS-SBB\nimport:         from AS13030 accept AS-INIT7\nexport:         to AS13184 announce AS-SBB\nimport:         from AS13184 accept AS-HANSENET\nexport:         to AS13285 announce AS-SBB\nimport:         from AS13285 accept AS-OPAL\nexport:         to AS13335 announce AS-SBB\nimport:         from AS13335 accept AS13335\nexport:         to AS15169 announce AS-SBB\nimport:         from AS15169 accept AS-GOOGLE\nexport:         to AS15133 announce AS-SBB\nimport:         from AS15133 accept AS-EDGECAST\nexport:         to AS15557 announce AS-SBB\nimport:         from AS15557 accept AS-LDCOMNET\nexport:         to AS15600 announce AS-SBB\nimport:         from AS15600 accept AS-FINECOM\nexport:         to AS16150 announce AS-SBB\nimport:         from AS16150 accept AS16150:AS-CUSTOMERS\nexport:         to AS16265 announce AS-SBB\nimport:         from AS16265 accept AS-LEASEWEB\nexport:         to AS16276 announce AS-SBB\nimport:         from AS16276 accept AS-OVH\nexport:         to AS16509 announce AS-SBB\nimport:         from AS16509 accept AS-AMAZON\nexport:         to AS20773 announce AS-SBB\nimport:         from AS20773 accept AS-HOSTEUROPE\nexport:         to AS20940 announce AS-SBB\nimport:         from AS20940 accept AS-AKAMAI\nexport:         to AS21213 announce AS-SBB\nimport:         from AS21213 accept AS-CYBERSERVICE\nexport:         to AS21371 announce AS-SBB\nimport:         from AS21371 accept AS-EQUINIX-EU\nexport:         to AS21385 announce AS-SBB\nimport:         from AS21385 accept AS-TNIB\nexport:         to AS22822 announce AS-SBB\nimport:         from AS22822 accept AS-LLNW\nexport:         to AS24940 announce AS-SBB\nimport:         from AS24940 accept AS-HETZNER\nexport:         to AS25160 announce AS-SBB\nimport:         from AS25160 accept AS-VORBOSS\nexport:         to AS25489 announce AS-SBB\nimport:         from AS25489 accept AS-AQUATIX\nexport:         to AS28917 announce AS-SBB\nimport:         from AS28917 accept AS-FIORD\nexport:         to AS29014 announce AS-SBB\nimport:         from AS29014 accept AS-INTERNET4YOU\nexport:         to AS29017 announce AS-SBB\nimport:         from AS29017 accept AS-GYRON\nexport:         to AS29140 announce AS-SBB\nimport:         from AS29140 accept AS-HOSTSERVER\nexport:         to AS29287 announce AS-SBB\nimport:         from AS29287 accept AS29287\nexport:         to AS21396 announce AS-SBB\nimport:         from AS21396 accept AS-NETCONNEX\nexport:         to AS29686 announce AS-SBB\nimport:         from AS29686 accept AS-PROBENETWORKS\nexport:         to AS30132 announce AS-SBB\nimport:         from AS30132 accept AS30132\nexport:         to AS31216 announce AS-SBB\nimport:         from AS31216 accept AS-BSOCOM\nexport:         to AS31133 announce AS-SBB\nimport:         from AS31133 accept AS-MF-MGSM\nexport:         to AS31400 announce AS-SBB\nimport:         from AS31400 accept AS-ACCELERATED\nexport:         to AS31543 announce AS-SBB\nimport:         from AS31543 accept AS-MYNET-AT\nexport:         to AS32787 announce AS-SBB\nimport:         from AS32787 accept AS-PROLE\nexport:         to AS32934 announce AS-SBB\nimport:         from AS32934 accept AS-FACEBOOK\nexport:         to AS33082 announce AS-SBB\nimport:         from AS33082 accept AS33082\nexport:         to AS33873 announce AS-SBB\nimport:         from AS33873 accept AS-ARVATO\nexport:         to AS33891 announce AS-SBB\nimport:         from AS33891 accept AS-CORE-BACKBONE\nexport:         to AS34224 announce AS-SBB\nimport:         from AS34224 accept AS-NETERRA-INT\nexport:         to AS34305 announce AS-SBB\nimport:         from AS34305 accept AS-BASEIP\nexport:         to AS34309 announce AS-SBB\nimport:         from AS34309 accept AS-LINK11\nexport:         to AS34695 announce AS-SBB\nimport:         from AS34695 accept AS34695\nexport:         to AS34803 announce AS-SBB\nimport:         from AS34803 accept AS-BGL\nexport:         to AS35028 announce AS-SBB\nimport:         from AS35028 accept AS-MULTIPLAY\nexport:         to AS35254 announce AS-SBB\nimport:         from AS35254 accept AS-BALTCOMIP\nexport:         to AS36408 announce AS-SBB\nimport:         from AS36408 accept AS36408\nexport:         to AS36351 announce AS-SBB\nimport:         from AS36351 accept AS-SOFTLAYER\nexport:         to AS36944 announce AS-SBB\nimport:         from AS36944 accept AS-TERTIARY\nexport:         to AS39743 announce AS-SBB\nimport:         from AS39743 accept AS-VOXILITY-SET\nexport:         to AS39912 announce AS-SBB\nimport:         from AS39912 accept AS-I3B-TRANSIT-V4\nexport:         to AS41095 announce AS-SBB\nimport:         from AS41095 accept AS-IPTP\nexport:         to AS41412 announce AS-SBB\nimport:         from AS41412 accept AS-MIVITEC\nexport:         to AS41552 announce AS-SBB\nimport:         from AS41552 accept AS-ECG\nexport:         to AS41692 announce AS-SBB\nimport:         from AS41692 accept AS-OPENCARRIER\nexport:         to AS42400 announce AS-SBB\nimport:         from AS42400 accept AS-MULTIHOST\nexport:         to AS42416 announce AS-SBB\nimport:         from AS42416 accept AS-COMNET\nexport:         to AS42459 announce AS-SBB\nimport:         from AS42459 accept AS-FOBUL\nexport:         to AS43531 announce AS-SBB\nimport:         from AS43531 accept AS-IXREACH\nexport:         to AS43890 announce AS-SBB\nimport:         from AS43890 accept AS-NETSERV-RO\nexport:         to AS44066 announce AS-SBB\nimport:         from AS44066 accept AS-FIRSTCOLO\nexport:         to AS44654 announce AS-SBB\nimport:         from AS44654 accept AS-MNS\nexport:         to AS44788 announce AS-SBB\nimport:         from AS44788 accept AS-CRITEO-EU\nexport:         to AS46489 announce AS-SBB\nimport:         from AS46489 accept AS46489\nexport:         to AS48362 announce AS-SBB\nimport:         from AS48362 accept AS-TKSWF\nexport:         to AS49367 announce AS-SBB\nimport:         from AS49367 accept AS49367\nexport:         to AS49544 announce AS-SBB\nimport:         from AS49544 accept AS-INTERACTIVE3D\nexport:         to AS50683 announce AS-SBB\nimport:         from AS50683 accept AS-I2B-GLO\nexport:         to AS56665 announce AS-SBB\nimport:         from AS56665 accept AS-TELINDUSLUX\nexport:         to AS197043 announce AS-SBB\nimport:         from AS197043 accept AS-OPTIMATE-WEB\nremarks:        ********************************\nremarks:        ** PUBLIC PEERINGS IPv6 **\nremarks:        ** AMS-IX, DE-CIX ,VIX & LINX **\nremarks:        ********************************\nstatus:         ASSIGNED\nmp-export:      afi ipv6.unicast to AS42 announce AS-SBB-V6\nmp-import:      afi ipv6.unicast from AS42 accept AS-PCH\nmp-export:      afi ipv6.unicast to AS553 announce AS-SBB-V6\nmp-import:      afi ipv6.unicast from AS553 accept AS-BELWUE\nmp-export:      afi ipv6.unicast to AS6083 announce AS-SBB-V6\nmp-import:      afi ipv6.unicast from AS6083 accept AS-POSIX-V6\nmp-export:      afi ipv6.unicast to AS1200 announce AS-SBB-V6\nmp-import:      afi ipv6.unicast from AS1200 accept AS1200\nmp-export:      afi ipv6.unicast to AS1764 announce AS-SBB-V6\nmp-import:      afi ipv6.unicast from AS1764 accept AS-NEXTLAYER-V6\nmp-export:      afi ipv6.unicast to AS2119 announce AS-SBB-V6\nmp-import:      afi ipv6.unicast from AS2119 accept AS-TELENOR\nmp-export:      afi ipv6.unicast to AS2603 announce AS-SBB-V6\nmp-import:      afi ipv6.unicast from AS2603 accept AS-NORDUNET\nmp-export:      afi ipv6.unicast to AS2852 announce AS-SBB-V6\nmp-import:      afi ipv6.unicast from AS2852 accept AS-CESNET\nmp-export:      afi ipv6.unicast to AS3267 announce AS-SBB-V6\nmp-import:      afi ipv6.unicast from AS3267 accept AS-RUNNET\nmp-export:      afi ipv6.unicast to AS3856 announce AS-SBB-V6\nmp-import:      afi ipv6.unicast from AS3856 accept AS-PCH\nmp-export:      afi ipv6.unicast to AS4739 announce AS-SBB-V6\nmp-import:      afi ipv6.unicast from AS4739 accept AS4739\nmp-export:      afi ipv6.unicast to AS5089 announce AS-SBB-V6\nmp-import:      afi ipv6.unicast from AS5089 accept AS-NTLI\nmp-export:      afi ipv6.unicast to AS5430 announce AS-SBB-V6\nmp-import:      afi ipv6.unicast from AS5430 accept AS-FREENETDE\nmp-export:      afi ipv6.unicast to AS5580 announce AS-SBB-V6\nmp-import:      afi ipv6.unicast from AS5580 accept AS-ATRATO\nmp-export:      afi ipv6.unicast to AS5607 announce AS-SBB-V6\nmp-import:      afi ipv6.unicast from AS5607 accept AS-BSKYB-BROADBAND\nmp-export:      afi ipv6.unicast to AS6327 announce AS-SBB-V6\nmp-import:      afi ipv6.unicast from AS6327 accept AS-BIGPIPE\nmp-export:      afi ipv6.unicast to AS6661 announce AS-SBB-V6\nmp-import:      afi ipv6.unicast from AS6661 accept AS-PTLU-V6\nmp-export:      afi ipv6.unicast to AS6663 announce AS-SBB-V6\nmp-import:      afi ipv6.unicast from AS6663 accept AS-PANTEL\nmp-export:      afi ipv6.unicast to AS6667 announce AS-SBB-V6\nmp-import:      afi ipv6.unicast from AS6667 accept AS-EUNETIP\nmp-export:      afi ipv6.unicast to AS6724 announce AS-SBB-V6\nmp-import:      afi ipv6.unicast from AS6724 accept AS-STRATORZ\nmp-export:      afi ipv6.unicast to AS6730 announce AS-SBB-V6\nmp-import:      afi ipv6.unicast from AS6730 accept AS-GLOBAL\nmp-export:      afi ipv6.unicast to AS6805 announce AS-SBB-V6\nmp-import:      afi ipv6.unicast from AS6805 accept AS-TDDE\nmp-export:      afi ipv6.unicast to AS6939 announce AS-SBB-V6\nmp-import:      afi ipv6.unicast from AS6939 accept AS-HURRICANE\nmp-export:      afi ipv6.unicast to AS8075 announce AS-SBB-V6\nmp-import:      afi ipv6.unicast from AS8075 accept AS-MICROSOFT\nmp-export:      afi ipv6.unicast to AS8245 announce AS-SBB-V6\nmp-import:      afi ipv6.unicast from AS8245 accept AS-VB\nmp-export:      afi ipv6.unicast to AS8262 announce AS-SBB-V6\nmp-import:      afi ipv6.unicast from AS8262 accept AS-EVOLINK\nmp-export:      afi ipv6.unicast to AS8319 announce AS-SBB-V6\nmp-import:      afi ipv6.unicast from AS8319 accept AS-NETHINKS-v6\nmp-export:      afi ipv6.unicast to AS8365 announce AS-SBB-V6\nmp-import:      afi ipv6.unicast from AS8365 accept AS-MANDA\nmp-export:      afi ipv6.unicast to AS8387 announce AS-SBB-V6\nmp-import:      afi ipv6.unicast from AS8387 accept AS-T-SYSTEMS-AT-V6\nmp-export:      afi ipv6.unicast to AS8412 announce AS-SBB-V6\nmp-import:      afi ipv6.unicast from AS8412 accept AS-TMA2VIX\nmp-export:      afi ipv6.unicast to AS8422 announce AS-SBB-V6\nmp-import:      afi ipv6.unicast from AS8422 accept AS-NETCOLOGNE\nmp-export:      afi ipv6.unicast to AS8445 announce AS-SBB-V6\nmp-import:      afi ipv6.unicast from AS8445 accept AS-SALZBURG-AG\nmp-export:      afi ipv6.unicast to AS8447 announce AS-SBB-V6\nmp-import:      afi ipv6.unicast from AS8447 accept AS-PTA\nmp-export:      afi ipv6.unicast to AS8469 announce AS-SBB-V6\nmp-import:      afi ipv6.unicast from AS8469 accept AS-PIRONETNDH\nmp-export:      afi ipv6.unicast to AS8492 announce AS-SBB-V6\nmp-import:      afi ipv6.unicast from AS8492 accept AS-OBIT\nmp-export:      afi ipv6.unicast to AS8551 announce AS-SBB-V6\nmp-import:      afi ipv6.unicast from AS8551 accept AS-BEZEQINT\nmp-export:      afi ipv6.unicast to AS8560 announce AS-SBB-V6\nmp-import:      afi ipv6.unicast from AS8560 accept AS-1AND1\nmp-export:      afi ipv6.unicast to AS8591 announce AS-SBB-V6\nmp-import:      afi ipv6.unicast from AS8591 accept AS-AMIS\nmp-export:      afi ipv6.unicast to AS8657 announce AS-SBB-V6\nmp-import:      afi ipv6.unicast from AS8657 accept AS-CPRM-V6\nmp-export:      afi ipv6.unicast to AS8816 announce AS-SBB-V6\nmp-import:      afi ipv6.unicast from AS8816 accept AS-METROLINK-IT\nmp-export:      afi ipv6.unicast to AS9002 announce AS-SBB-V6\nmp-import:      afi ipv6.unicast from AS9002 accept AS-RETN6\nmp-export:      afi ipv6.unicast to AS9009 announce AS-SBB-V6\nmp-import:      afi ipv6.unicast from AS9009 accept AS-GBXS6\nmp-export:      afi ipv6.unicast to AS9044 announce AS-SBB-V6\nmp-import:      afi ipv6.unicast from AS9044 accept AS-SOLNET\nmp-export:      afi ipv6.unicast to AS9063 announce AS-SBB-V6\nmp-import:      afi ipv6.unicast from AS9063 accept AS-SAARGATE-V6\nmp-export:      afi ipv6.unicast to AS9066 announce AS-SBB-V6\nmp-import:      afi ipv6.unicast from AS9066 accept AS-BCC\nmp-export:      afi ipv6.unicast to AS9145 announce AS-SBB-V6\nmp-import:      afi ipv6.unicast from AS9145 accept AS-EWETEL\nmp-export:      afi ipv6.unicast to AS10310 announce AS-SBB-V6\nmp-import:      afi ipv6.unicast from AS10310 accept AS-YAHOO\nmp-export:      afi ipv6.unicast to AS12041 announce AS-SBB-V6\nmp-import:      afi ipv6.unicast from AS12041 accept AS12041\nmp-export:      afi ipv6.unicast to AS12350 announce AS-SBB-V6\nmp-import:      afi ipv6.unicast from AS12350 accept AS-VTX\nmp-export:      afi ipv6.unicast to AS12715 announce AS-SBB-V6\nmp-import:      afi ipv6.unicast from AS12715 accept AS-JAZZTRANS\nmp-export:      afi ipv6.unicast to AS12611 announce AS-SBB-V6\nmp-import:      afi ipv6.unicast from AS12611 accept AS-RKOM\nmp-export:      afi ipv6.unicast to AS12678 announce AS-SBB-V6\nmp-import:      afi ipv6.unicast from AS12678 accept AS-BADOO\nmp-export:      afi ipv6.unicast to AS12731 announce AS-SBB-V6\nmp-import:      afi ipv6.unicast from AS12731 accept AS-IPHH\nmp-export:      afi ipv6.unicast to AS12759 announce AS-SBB-V6\nmp-import:      afi ipv6.unicast from AS12759 accept AS-SOCO\nmp-export:      afi ipv6.unicast to AS12859 announce AS-SBB-V6\nmp-import:      afi ipv6.unicast from AS12859 accept AS-BIT6\nmp-export:      afi ipv6.unicast to AS13030 announce AS-SBB-V6\nmp-import:      afi ipv6.unicast from AS13030 accept AS-INIT7\nmp-export:      afi ipv6.unicast to AS13184 announce AS-SBB-V6\nmp-import:      afi ipv6.unicast from AS13184 accept AS-HANSENET\nmp-export:      afi ipv6.unicast to AS13285 announce AS-SBB-V6\nmp-import:      afi ipv6.unicast from AS13285 accept AS-OPAL\nmp-export:      afi ipv6.unicast to AS13335 announce AS-SBB-V6\nmp-import:      afi ipv6.unicast from AS13335 accept AS13335\nmp-export:      afi ipv6.unicast to AS15169 announce AS-SBB-V6\nmp-import:      afi ipv6.unicast from AS15169 accept AS-GOOGLE\nmp-export:      afi ipv6.unicast to AS15133 announce AS-SBB-V6\nmp-import:      afi ipv6.unicast from AS15133 accept AS-EDGECAST\nmp-export:      afi ipv6.unicast to AS15557 announce AS-SBB-V6\nmp-import:      afi ipv6.unicast from AS15557 accept AS-LDCOMNET\nmp-export:      afi ipv6.unicast to AS15600 announce AS-SBB-V6\nmp-import:      afi ipv6.unicast from AS15600 accept AS-FINECOM\nmp-export:      afi ipv6.unicast to AS16150 announce AS-SBB-V6\nmp-import:      afi ipv6.unicast from AS16150 accept AS16150:AS-CUSTOMERS\nmp-export:      afi ipv6.unicast to AS16265 announce AS-SBB-V6\nmp-import:      afi ipv6.unicast from AS16265 accept AS-LEASEWEB\nmp-export:      afi ipv6.unicast to AS16276 announce AS-SBB-V6\nmp-import:      afi ipv6.unicast from AS16276 accept AS-OVH\nmp-export:      afi ipv6.unicast to AS16509 announce AS-SBB-V6\nmp-import:      afi ipv6.unicast from AS16509 accept AS-AMAZON\nmp-export:      afi ipv6.unicast to AS20773 announce AS-SBB-V6\nmp-import:      afi ipv6.unicast from AS20773 accept AS-HOSTEUROPE\nmp-export:      afi ipv6.unicast to AS20940 announce AS-SBB-V6\nmp-import:      afi ipv6.unicast from AS20940 accept AS-AKAMAI\nmp-export:      afi ipv6.unicast to AS21213 announce AS-SBB-V6\nmp-import:      afi ipv6.unicast from AS21213 accept AS-CYBERSERVICE6\nmp-export:      afi ipv6.unicast to AS21371 announce AS-SBB-V6\nmp-import:      afi ipv6.unicast from AS21371 accept AS-EQUINIX-EU\nmp-export:      afi ipv6.unicast to AS21385 announce AS-SBB-V6\nmp-import:      afi ipv6.unicast from AS21385 accept AS-TNIB\nmp-export:      afi ipv6.unicast to AS22822 announce AS-SBB-V6\nmp-import:      afi ipv6.unicast from AS22822 accept AS-LLNW\nmp-export:      afi ipv6.unicast to AS24940 announce AS-SBB-V6\nmp-import:      afi ipv6.unicast from AS24940 accept AS-HETZNER\nmp-export:      afi ipv6.unicast to AS25160 announce AS-SBB-V6\nmp-import:      afi ipv6.unicast from AS25160 accept AS-VORBOSS\nmp-export:      afi ipv6.unicast to AS25489 announce AS-SBB-V6\nmp-import:      afi ipv6.unicast from AS25489 accept AS-AQUATIX6\nmp-export:      afi ipv6.unicast to AS28917 announce AS-SBB-V6\nmp-import:      afi ipv6.unicast from AS28917 accept AS-FIORD\nmp-export:      afi ipv6.unicast to AS29014 announce AS-SBB-V6\nmp-import:      afi ipv6.unicast from AS29014 accept AS-INTERNET4YOU\nmp-export:      afi ipv6.unicast to AS29017 announce AS-SBB-V6\nmp-import:      afi ipv6.unicast from AS29017 accept AS-GYRON\nmp-export:      afi ipv6.unicast to AS29140 announce AS-SBB-V6\nmp-import:      afi ipv6.unicast from AS29140 accept AS-HOSTSERVER\nmp-export:      afi ipv6.unicast to AS29287 announce AS-SBB-V6\nmp-import:      afi ipv6.unicast from AS29287 accept AS29287\nmp-export:      afi ipv6.unicast to AS21396 announce AS-SBB-V6\nmp-import:      afi ipv6.unicast from AS21396 accept AS-NETCONNEX\nmp-export:      afi ipv6.unicast to AS29686 announce AS-SBB-V6\nmp-import:      afi ipv6.unicast from AS29686 accept AS-PROBENETWORKS\nmp-export:      afi ipv6.unicast to AS30132 announce AS-SBB-V6\nmp-import:      afi ipv6.unicast from AS30132 accept AS30132\nmp-export:      afi ipv6.unicast to AS31216 announce AS-SBB-V6\nmp-import:      afi ipv6.unicast from AS31216 accept AS-BSOCOM\nmp-export:      afi ipv6.unicast to AS31133 announce AS-SBB-V6\nmp-import:      afi ipv6.unicast from AS31133 accept AS-MF-MGSM\nmp-export:      afi ipv6.unicast to AS31400 announce AS-SBB-V6\nmp-import:      afi ipv6.unicast from AS31400 accept AS-ACCELERATED\nmp-export:      afi ipv6.unicast to AS31543 announce AS-SBB-V6\nmp-import:      afi ipv6.unicast from AS31543 accept AS-MYNET-AT\nmp-export:      afi ipv6.unicast to AS32787 announce AS-SBB-V6\nmp-import:      afi ipv6.unicast from AS32787 accept AS-PROLE\nmp-export:      afi ipv6.unicast to AS32934 announce AS-SBB-V6\nmp-import:      afi ipv6.unicast from AS32934 accept AS-FACEBOOK\nmp-export:      afi ipv6.unicast to AS33082 announce AS-SBB-V6\nmp-import:      afi ipv6.unicast from AS33082 accept AS33082\nmp-export:      afi ipv6.unicast to AS33873 announce AS-SBB-V6\nmp-import:      afi ipv6.unicast from AS33873 accept AS-ARVATO-V6\nmp-export:      afi ipv6.unicast to AS33891 announce AS-SBB-V6\nmp-import:      afi ipv6.unicast from AS33891 accept AS-CORE-BACKBONE\nmp-export:      afi ipv6.unicast to AS34224 announce AS-SBB-V6\nmp-import:      afi ipv6.unicast from AS34224 accept AS-NETERRA-INT\nmp-export:      afi ipv6.unicast to AS34305 announce AS-SBB-V6\nmp-import:      afi ipv6.unicast from AS34305 accept AS-BASEIP-V6\nmp-export:      afi ipv6.unicast to AS34309 announce AS-SBB-V6\nmp-import:      afi ipv6.unicast from AS34309 accept AS-LINK11\nmp-export:      afi ipv6.unicast to AS34695 announce AS-SBB-V6\nmp-import:      afi ipv6.unicast from AS34695 accept AS34695\nmp-export:      afi ipv6.unicast to AS34803 announce AS-SBB-V6\nmp-import:      afi ipv6.unicast from AS34803 accept AS-BGL\nmp-export:      afi ipv6.unicast to AS35028 announce AS-SBB-V6\nmp-import:      afi ipv6.unicast from AS35028 accept AS-MULTIPLAY\nmp-export:      afi ipv6.unicast to AS35254 announce AS-SBB-V6\nmp-import:      afi ipv6.unicast from AS35254 accept AS-BALTCOMIP\nmp-export:      afi ipv6.unicast to AS36408 announce AS-SBB-V6\nmp-import:      afi ipv6.unicast from AS36408 accept AS36408\nmp-export:      afi ipv6.unicast to AS36351 announce AS-SBB-V6\nmp-import:      afi ipv6.unicast from AS36351 accept AS-SOFTLAYER\nmp-export:      afi ipv6.unicast to AS36944 announce AS-SBB-V6\nmp-import:      afi ipv6.unicast from AS36944 accept AS-TERTIARY\nmp-export:      afi ipv6.unicast to AS39743 announce AS-SBB-V6\nmp-import:      afi ipv6.unicast from AS39743 accept AS-VOXILITY-SET\nmp-export:      afi ipv6.unicast to AS39912 announce AS-SBB-V6\nmp-import:      afi ipv6.unicast from AS39912 accept AS-I3B-TRANSIT-V4\nmp-export:      afi ipv6.unicast to AS41095 announce AS-SBB-V6\nmp-import:      afi ipv6.unicast from AS41095 accept AS-IPTP\nmp-export:      afi ipv6.unicast to AS41412 announce AS-SBB-V6\nmp-import:      afi ipv6.unicast from AS41412 accept AS-MIVITEC\nmp-export:      afi ipv6.unicast to AS41552 announce AS-SBB-V6\nmp-import:      afi ipv6.unicast from AS41552 accept AS-ECG\nmp-export:      afi ipv6.unicast to AS41692 announce AS-SBB-V6\nmp-import:      afi ipv6.unicast from AS41692 accept AS-OPENCARRIER6\nmp-export:      afi ipv6.unicast to AS42400 announce AS-SBB-V6\nmp-import:      afi ipv6.unicast from AS42400 accept AS-MULTIHOST\nmp-export:      afi ipv6.unicast to AS42416 announce AS-SBB-V6\nmp-import:      afi ipv6.unicast from AS42416 accept AS-COMNET\nmp-export:      afi ipv6.unicast to AS42459 announce AS-SBB-V6\nmp-import:      afi ipv6.unicast from AS42459 accept AS-FOBUL\nmp-export:      afi ipv6.unicast to AS43531 announce AS-SBB-V6\nmp-import:      afi ipv6.unicast from AS43531 accept AS-IXREACH\nmp-export:      afi ipv6.unicast to AS43890 announce AS-SBB-V6\nmp-import:      afi ipv6.unicast from AS43890 accept AS-NETSERV-RO\nmp-export:      afi ipv6.unicast to AS44066 announce AS-SBB-V6\nmp-import:      afi ipv6.unicast from AS44066 accept AS-FIRSTCOLO\nmp-export:      afi ipv6.unicast to AS44654 announce AS-SBB-V6\nmp-import:      afi ipv6.unicast from AS44654 accept AS-MNS\nmp-export:      afi ipv6.unicast to AS44788 announce AS-SBB-V6\nmp-import:      afi ipv6.unicast from AS44788 accept AS-CRITEO-EU-V6\nmp-export:      afi ipv6.unicast to AS46489 announce AS-SBB-V6\nmp-import:      afi ipv6.unicast from AS46489 accept AS46489\nmp-export:      afi ipv6.unicast to AS48362 announce AS-SBB-V6\nmp-import:      afi ipv6.unicast from AS48362 accept AS-TKSWF\nmp-export:      afi ipv6.unicast to AS49367 announce AS-SBB-V6\nmp-import:      afi ipv6.unicast from AS49367 accept AS49367\nmp-export:      afi ipv6.unicast to AS49544 announce AS-SBB-V6\nmp-import:      afi ipv6.unicast from AS49544 accept AS-INTERACTIVE3D\nmp-export:      afi ipv6.unicast to AS50683 announce AS-SBB-V6\nmp-import:      afi ipv6.unicast from AS50683 accept AS-I2B-GLO\nmp-export:      afi ipv6.unicast to AS56665 announce AS-SBB-V6\nmp-import:      afi ipv6.unicast from AS56665 accept AS-TELINDUSLUX\nmp-export:      afi ipv6.unicast to AS197043 announce AS-SBB-V6\nmp-import:      afi ipv6.unicast from AS197043 accept AS-OPTIMATE-WEB\nremarks:        ***************************\nremarks:        ** PUBLIC PEERINGS END **\nremarks:        ***************************\nmnt-by:         RIPE-NCC-END-MNT\nmnt-routes:     SBB-MNT\nmnt-by:         AS31042-MNT\nsource:         RIPE # Filtered\n\norganisation:   ORG-SKmS1-RIPE\norg-name:       Serbia BroadBand-Srpske Kablovske mreze d.o.o.\norg-type:       LIR\naddress:        SERBIA BROADBAND - SRPSKE KABLOVSKE MREZE D.O.O.\naddress:        Dragoljub Spasojevic\naddress:        Bulevar Zorana Djindjica 8a\naddress:        11000\naddress:        Belgrade\naddress:        SERBIA\nphone:          +381114001175\nphone:          +381114001000\nfax-no:         +381114001053\nmnt-ref:        SBB-MNT\nmnt-ref:        RIPE-NCC-HM-MNT\nmnt-by:         RIPE-NCC-HM-MNT\nadmin-c:        DS7777-RIPE\nadmin-c:        NK738-RIPE\nadmin-c:        SBRT-RIPE\nabuse-mailbox:  abuse@sbb.rs\nabuse-c:        SBAT7-RIPE\nsource:         RIPE # Filtered\n\nperson:         Dragan Solak\naddress:        Serbia BroadBand - SBB\naddress:        Bulevar Zorana Djindjica 8a\naddress:        11000 Beograd, Srbija\nphone:          +381 11 3305210\nphone:          +381 11 3305200\nfax-no:         +381 11 3033288\nnic-hdl:        DS2087-RIPE\nmnt-by:         SBB-MNT\nsource:         RIPE # Filtered\n\nperson:         Dragoljub Spasojevic\naddress:        Serbia BroadBand\naddress:        Bulevar Zorana Djindjica 8a\naddress:        11000 Beograd\naddress:        SRBIJA\norg:            ORG-SKmS1-RIPE\nphone:          +381 11 4001199\nphone:          +381 11 4001399\nfax-no:         +381 11 4001053\nabuse-mailbox:  abuse@sbb.rs\nnic-hdl:        DS7777-RIPE\nmnt-by:         SBB-MNT\nsource:         RIPE # Filtered\n\nperson:         Nikola Kljukovnica\naddress:        Serbia BroadBand\naddress:        Kralja Petra 45\naddress:        11000 Beograd, Srbija\naddress:        Serbia\nphone:          +381 11 3305206\nphone:          +381 11 3305288\nfax-no:         +381 11 3033215\nabuse-mailbox:  abuse@sbb.rs\nnic-hdl:        NK738-RIPE\nmnt-by:         SBB-MNT\nsource:         RIPE # Filtered\n\nperson:         Vladan Spasic\naddress:        Serbia BroadBand\naddress:        Bulevar Zorana Djindjica 8a\naddress:        11000 Beograd, Srbija\naddress:        Serbia\nphone:          +381 11 3305241\nfax-no:         +381 11 3033215\nabuse-mailbox:  abuse@sbb.rs\nnic-hdl:        VS1986-RIPE\nmnt-by:         SBB-MNT\nsource:         RIPE # Filtered\n\n% This query was served by the RIPE Database Query Service version 1.76.1 (DB-2)\n\n\n"}